Version 4
SHEET 1 2564 680
WIRE -16 -80 -112 -80
WIRE 160 -80 -16 -80
WIRE 160 -48 160 -80
WIRE -16 -32 -16 -80
WIRE -16 96 -16 32
WIRE -16 96 -112 96
WIRE 160 96 160 32
WIRE 160 96 -16 96
SYMBOL res 144 -64 R0
SYMATTR InstName R2
SYMATTR Value 10k
SYMBOL zener 0 32 R180
WINDOW 0 24 64 Left 2
WINDOW 3 24 0 Left 2
SYMATTR InstName D1
SYMATTR Value BZX384B20
TEXT -128 32 Invisible 2 !.model ZenerRegulator D(Ron = 0 Roff = 1Meg Vfwd =
