Version 4
SHEET 1 2564 680
WIRE 1120 -128 880 -128
WIRE 1120 -80 1120 -128
WIRE 1120 -80 1056 -80
WIRE 1216 -80 1120 -80
WIRE 1056 -32 1056 -80
WIRE 1216 -32 1216 -80
WIRE 624 16 448 16
WIRE 880 16 880 -128
WIRE 880 16 736 16
WIRE 448 64 448 16
WIRE 624 64 624 16
WIRE 736 64 736 16
WIRE 1056 96 1056 32
WIRE 1056 96 976 96
WIRE 1216 96 1216 32
WIRE 1664 96 1216 96
WIRE 1776 96 1664 96
WIRE 1792 96 1776 96
WIRE 1968 96 1856 96
WIRE 2080 96 1968 96
WIRE 1664 128 1664 96
WIRE 2080 128 2080 96
WIRE 1056 144 1056 96
WIRE 1216 144 1216 96
WIRE 1968 144 1968 96
WIRE 448 224 448 144
WIRE 528 224 448 224
WIRE 624 224 624 144
WIRE 624 224 528 224
WIRE 736 224 736 144
WIRE 880 224 736 224
WIRE 1056 256 1056 208
WIRE 1120 256 1056 256
WIRE 1216 256 1216 208
WIRE 1216 256 1120 256
WIRE 1968 272 1968 208
WIRE 1968 272 1808 272
WIRE 2080 272 2080 208
WIRE 2080 272 1968 272
WIRE 880 320 880 224
WIRE 944 320 880 320
WIRE 1120 320 1120 256
WIRE 1120 320 1024 320
WIRE 944 368 944 320
WIRE 1024 368 1024 320
WIRE 1024 368 944 368
WIRE 528 416 528 224
WIRE 976 416 976 96
WIRE 976 416 528 416
WIRE 1664 416 1664 192
WIRE 1664 416 976 416
WIRE 1808 416 1808 272
WIRE 1808 416 1664 416
FLAG 976 416 0
SYMBOL ind2 608 160 M180
WINDOW 0 -37 88 Left 2
WINDOW 3 -75 30 Left 2
SYMATTR InstName L2
SYMATTR Value 155.9µ
SYMATTR Type ind
SYMATTR SpiceLine Rser=0.00001
SYMBOL ind2 752 160 R180
WINDOW 0 -30 86 Left 2
WINDOW 3 -24 40 Left 2
SYMATTR InstName L1
SYMATTR Value 1µ
SYMATTR Type ind
SYMBOL voltage 448 48 R0
WINDOW 3 -105 115 Left 2
WINDOW 123 0 0 Left 0
WINDOW 39 0 0 Left 0
SYMATTR Value SINE(0 311.13 50)
SYMATTR InstName V1
SYMBOL diode 1072 32 R180
WINDOW 0 24 64 Left 2
WINDOW 3 24 0 Left 2
SYMATTR InstName D1
SYMATTR Value 1N4148
SYMBOL diode 1040 144 R0
SYMATTR InstName D2
SYMATTR Value 1N4148
SYMBOL diode 1200 -32 R0
SYMATTR InstName D3
SYMATTR Value 1N4148
SYMBOL diode 1232 208 R180
WINDOW 0 24 64 Left 2
WINDOW 3 -89 6 Left 2
SYMATTR InstName D4
SYMATTR Value 1N4148
SYMBOL cap 1648 128 R0
SYMATTR InstName Cf
SYMATTR Value 0.302m
SYMBOL res 2064 112 R0
SYMATTR InstName RL
SYMATTR Value 10k
SYMBOL zener 1984 208 R180
WINDOW 0 24 64 Left 2
WINDOW 3 24 0 Left 2
SYMATTR InstName D6
SYMATTR Value BZX384B20
SYMBOL res 1872 80 R90
WINDOW 0 0 56 VBottom 2
WINDOW 3 32 56 VTop 2
SYMATTR InstName Rc
SYMATTR Value 777.8
TEXT 616 -24 Left 2 !k L1 L2 1
TEXT 344 248 Left 2 !.tran 0.2
TEXT -224 16 Left 2 !.model ZenerRegulator D(Ron = 0 Roff = 1Meg Vfwd =
