Version 4
SHEET 1 2564 680
WIRE -192 -288 -320 -288
WIRE -96 -288 -192 -288
WIRE 176 -288 -16 -288
WIRE 352 -288 176 -288
WIRE 352 -256 352 -288
WIRE -192 -240 -192 -288
WIRE 176 -240 176 -288
WIRE 176 -112 176 -176
WIRE 176 -112 0 -112
WIRE 352 -112 352 -176
WIRE 352 -112 176 -112
WIRE -192 96 -192 -176
WIRE -192 96 -288 96
WIRE 0 96 0 -112
WIRE 0 96 -192 96
WIRE 0 0 0 0
SYMBOL res 336 -272 R0
SYMATTR InstName R2
SYMATTR Value 10k
SYMBOL zener 192 -176 R180
WINDOW 0 24 64 Left 2
WINDOW 3 24 0 Left 2
SYMATTR InstName D1
SYMATTR Value BZX384B20
SYMBOL res 0 -304 R90
WINDOW 0 0 56 VBottom 2
WINDOW 3 32 56 VTop 2
SYMATTR InstName Rc
SYMATTR Value 777.8
SYMBOL cap -208 -240 R0
SYMATTR InstName Cf
SYMATTR Value 0.302m
TEXT -128 32 Left 2 !.model ZenerRegulator D(Ron = 0 Roff = 1Meg Vfwd =
